---- qbsp / ericw-tools v0.18.1 ----
Input file: GreyboxingSandbox.map
Output file: GreyboxingSandbox.bsp

---- LoadMapFile ----
*** WARNING 06: No info_player_deathmatch entities in level
          153 faces
           22 brushes
            3 entities
            4 unique texnames
           16 texinfo

Opened WAD: C:/QuakeDeve/wads/id1.wad
Opened WAD: C:/Users/mepow/Downloads/quake-leveldesign-starterkit-master (2)/quake-leveldesign-starterkit-master/wads/prototype_1_2.wad
Opened WAD: C:/QuakeDeve/wads/prototype_1_2.wad
Processing hull 0...
---- Brush_LoadEntity ----
           22 brushes
          121 planes
---- CSGFaces ----
          153 brushfaces
          235 csgfaces
          199 mergedfaces
---- SolidBSP ----
          366 split nodes
          117 solid leafs
          250 empty leafs
            0 water leafs
            0 detail leafs
            0 detail illusionary leafs
            0 detail fence leafs
            0 illusionary visblocker leafs
         7112 leaffaces
         6890 nodefaces
---- Portalize ----
          250 vis leafs
          250 vis clusters
          760 vis portals
---- FillOutside ----
          120 outleafs
---- MergeAll ----
          153 mergefaces
---- SolidBSP ----
          225 split nodes
           97 solid leafs
          129 empty leafs
            0 water leafs
            0 detail leafs
            0 detail illusionary leafs
            0 detail fence leafs
            0 illusionary visblocker leafs
         3738 leaffaces
         3533 nodefaces
---- Portalize ----
          129 vis leafs
          129 vis clusters
          453 vis portals
---- Tjunc ----
         1559 world edges
         9740 edge points
         2104 edges added by tjunctions
            0 faces added by tjunctions
---- MakeFaceEdges ----
---- GrowRegions ----
Processing hull 1...
Processing hull 2...
*** WARNING 16: Texture __TB_empty not found
---- WriteBSPFile ----
Wrote GreyboxingSandbox.bsp
          290 planes             5800
         4579 vertexes          54948
          225 nodes              5400
           13 texinfo             520
         3533 faces             70660
          529 clipnodes          4232
          130 leafs              3640
         3738 marksurfaces       7476
        16216 surfedges         64864
         8109 edges             32436
            4 textures          49100
              lightdata             0
              visdata               0
              entdata             356

0.174 seconds elapsed
Peak memory usage: 12844100 (12.2M)
