---- qbsp / ericw-tools v0.18.1 ----
Input file: GreyboxingSandbox.map
Output file: GreyboxingSandbox.bsp

---- LoadMapFile ----
*** WARNING 02: Multiple info_player_start entities
          298 faces
           44 brushes
          100 entities
           23 unique texnames
          105 texinfo

Opened WAD: C:/QuakeDeve/wads/id1.wad
Opened WAD: C:/Users/mepow/Downloads/quake-leveldesign-starterkit-master (2)/quake-leveldesign-starterkit-master/wads/prototype_1_2.wad
Opened WAD: C:/QuakeDeve/wads/prototype_1_2.wad
Processing hull 0...
---- Brush_LoadEntity ----
           39 brushes
          202 planes
---- CSGFaces ----
          264 brushfaces
          676 csgfaces
          576 mergedfaces
---- SolidBSP ----
          972 split nodes
          331 solid leafs
          642 empty leafs
            0 water leafs
            0 detail leafs
            0 detail illusionary leafs
            0 detail fence leafs
            0 illusionary visblocker leafs
         8111 leaffaces
         7553 nodefaces
---- Portalize ----
          642 vis leafs
          642 vis clusters
         1986 vis portals
---- FillOutside ----
*** WARNING 10: Reached occupant at (-2116 -232 456), no filling performed.
Leak file written to GreyboxingSandbox.pts
---- MakeFaceEdges ----
---- GrowRegions ----
Processing hull 1...
*** WARNING 10: Reached occupant at (-2116 -232 456), no filling performed.
Processing hull 2...
*** WARNING 10: Reached occupant at (-2116 -232 456), no filling performed.
---- WriteBSPFile ----
Wrote GreyboxingSandbox.bsp
          702 planes            14040
         9456 vertexes         113472
         1006 nodes             24144
          100 texinfo            4000
         7626 faces            152520
         2158 clipnodes         17264
          677 leafs             18956
         8184 marksurfaces      16368
        30470 surfedges        121880
        17963 edges             71852
           23 textures         176456
              lightdata             0
              visdata               0
              entdata            6598

0.232 seconds elapsed
Peak memory usage: 24141624 (23.0M)
