---- qbsp / ericw-tools v0.18.1 ----
Input file: GreyboxingSandbox.map
Output file: GreyboxingSandbox.bsp

---- LoadMapFile ----
*** WARNING 06: No info_player_deathmatch entities in level
          240 faces
           35 brushes
            5 entities
            3 unique texnames
           13 texinfo

Opened WAD: C:/QuakeDeve/wads/id1.wad
Opened WAD: C:/Users/mepow/Downloads/quake-leveldesign-starterkit-master (2)/quake-leveldesign-starterkit-master/wads/prototype_1_2.wad
Opened WAD: C:/QuakeDeve/wads/prototype_1_2.wad
Processing hull 0...
---- Brush_LoadEntity ----
           35 brushes
          195 planes
---- CSGFaces ----
          240 brushfaces
          369 csgfaces
          327 mergedfaces
---- SolidBSP ----
          739 split nodes
          250 solid leafs
          490 empty leafs
            0 water leafs
            0 detail leafs
            0 detail illusionary leafs
            0 detail fence leafs
            0 illusionary visblocker leafs
         8039 leaffaces
         7705 nodefaces
---- Portalize ----
          490 vis leafs
          490 vis clusters
         1645 vis portals
---- FillOutside ----
*** WARNING 10: Reached occupant at (-3344 -1248 6344), no filling performed.
Leak file written to GreyboxingSandbox.pts
---- MakeFaceEdges ----
---- GrowRegions ----
Processing hull 1...
*** WARNING 10: Reached occupant at (-3344 -1248 6344), no filling performed.
Processing hull 2...
*** WARNING 10: Reached occupant at (-3344 -1248 6344), no filling performed.
---- WriteBSPFile ----
Wrote GreyboxingSandbox.bsp
          605 planes            12100
         9730 vertexes         116760
          739 nodes             17736
           12 texinfo             480
         7705 faces            154100
         1570 clipnodes         12560
          491 leafs             13748
         8039 marksurfaces      16078
        30800 surfedges        123200
        18128 edges             72512
            3 textures          49096
              lightdata             0
              visdata               0
              entdata             515

0.775 seconds elapsed
Peak memory usage: 22599718 (21.6M)
