---- qbsp / ericw-tools v0.18.1 ----
Input file: GreyboxingSandbox.map
Output file: GreyboxingSandbox.bsp

---- LoadMapFile ----
          251 faces
           37 brushes
           25 entities
            5 unique texnames
           46 texinfo

Opened WAD: C:/QuakeDeve/wads/id1.wad
Opened WAD: C:/Users/mepow/Downloads/quake-leveldesign-starterkit-master (2)/quake-leveldesign-starterkit-master/wads/prototype_1_2.wad
Opened WAD: C:/QuakeDeve/wads/prototype_1_2.wad
Processing hull 0...
---- Brush_LoadEntity ----
           37 brushes
          196 planes
---- CSGFaces ----
          251 brushfaces
          675 csgfaces
          544 mergedfaces
---- SolidBSP ----
          980 split nodes
          351 solid leafs
          630 empty leafs
            0 water leafs
            0 detail leafs
            0 detail illusionary leafs
            0 detail fence leafs
            0 illusionary visblocker leafs
         7815 leaffaces
         7354 nodefaces
---- Portalize ----
          630 vis leafs
          630 vis clusters
         1898 vis portals
---- FillOutside ----
*** WARNING 10: Reached occupant at (-16312 -4200 676), no filling performed.
Leak file written to GreyboxingSandbox.pts
---- MakeFaceEdges ----
---- GrowRegions ----
Processing hull 1...
*** WARNING 10: Reached occupant at (-16312 -4200 676), no filling performed.
Processing hull 2...
*** WARNING 10: Reached occupant at (-16312 -4200 676), no filling performed.
*** WARNING 16: Texture __TB_empty not found
---- WriteBSPFile ----
Wrote GreyboxingSandbox.bsp
          604 planes            12080
         8975 vertexes         107700
          980 nodes             23520
           43 texinfo            1720
         7354 faces            147080
         2014 clipnodes         16112
          631 leafs             17668
         7815 marksurfaces      15630
        29393 surfedges        117572
        17169 edges             68676
            5 textures          70904
              lightdata             0
              visdata               0
              entdata            2038

0.232 seconds elapsed
Peak memory usage: 22962322 (21.9M)
