---- qbsp / ericw-tools v0.18.1 ----
Input file: GreyboxingSandbox.map
Output file: GreyboxingSandbox.bsp

---- LoadMapFile ----
          311 faces
           46 brushes
           45 entities
            6 unique texnames
           62 texinfo

Opened WAD: C:/QuakeDeve/wads/id1.wad
Opened WAD: C:/Users/mepow/Downloads/quake-leveldesign-starterkit-master (2)/quake-leveldesign-starterkit-master/wads/prototype_1_2.wad
Opened WAD: C:/QuakeDeve/wads/prototype_1_2.wad
Processing hull 0...
---- Brush_LoadEntity ----
           38 brushes
          203 planes
---- CSGFaces ----
          257 brushfaces
          708 csgfaces
          569 mergedfaces
---- SolidBSP ----
         1011 split nodes
          354 solid leafs
          656 empty leafs
            2 water leafs
            0 detail leafs
            0 detail illusionary leafs
            0 detail fence leafs
            0 illusionary visblocker leafs
         7622 leaffaces
         7196 nodefaces
---- Portalize ----
          658 vis leafs
          658 vis clusters
         2039 vis portals
---- FillOutside ----
*** WARNING 10: Reached occupant at (-16312 -4200 676), no filling performed.
Leak file written to GreyboxingSandbox.pts
---- MakeFaceEdges ----
---- GrowRegions ----
Processing hull 1...
*** WARNING 10: Reached occupant at (-16312 -4200 676), no filling performed.
Processing hull 2...
*** WARNING 10: Reached occupant at (-16312 -4200 676), no filling performed.
*** WARNING 16: Texture __TB_empty not found
---- WriteBSPFile ----
Wrote GreyboxingSandbox.bsp
          748 planes            14960
         8952 vertexes         107424
         1065 nodes             25560
           59 texinfo            2360
         7312 faces            146240
         2196 clipnodes         17568
          713 leafs             19964
         7738 marksurfaces      15476
        29217 surfedges        116868
        17076 edges             68304
            6 textures          76388
              lightdata             0
              visdata               0
              entdata            3713

0.287 seconds elapsed
Peak memory usage: 22919156 (21.9M)
