---- qbsp / ericw-tools v0.18.1 ----
Input file: GreyboxingSandbox.map
Output file: GreyboxingSandbox.bsp

---- LoadMapFile ----
          240 faces
           35 brushes
            8 entities
            3 unique texnames
           13 texinfo

Opened WAD: C:/QuakeDeve/wads/id1.wad
Opened WAD: C:/Users/mepow/Downloads/quake-leveldesign-starterkit-master (2)/quake-leveldesign-starterkit-master/wads/prototype_1_2.wad
Opened WAD: C:/QuakeDeve/wads/prototype_1_2.wad
Processing hull 0...
---- Brush_LoadEntity ----
           35 brushes
          195 planes
---- CSGFaces ----
          240 brushfaces
          378 csgfaces
          326 mergedfaces
---- SolidBSP ----
          735 split nodes
          249 solid leafs
          487 empty leafs
            0 water leafs
            0 detail leafs
            0 detail illusionary leafs
            0 detail fence leafs
            0 illusionary visblocker leafs
         8007 leaffaces
         7684 nodefaces
---- Portalize ----
          487 vis leafs
          487 vis clusters
         1628 vis portals
---- FillOutside ----
*** WARNING 10: Reached occupant at (-3344 -1248 6344), no filling performed.
Leak file written to GreyboxingSandbox.pts
---- MakeFaceEdges ----
---- GrowRegions ----
Processing hull 1...
*** WARNING 10: Reached occupant at (-3344 -1248 6344), no filling performed.
Processing hull 2...
*** WARNING 10: Reached occupant at (-3344 -1248 6344), no filling performed.
---- WriteBSPFile ----
Wrote GreyboxingSandbox.bsp
          607 planes            12140
         9846 vertexes         118152
          735 nodes             17640
           12 texinfo             480
         7684 faces            153680
         1581 clipnodes         12648
          488 leafs             13664
         8007 marksurfaces      16014
        30712 surfedges        122848
        18239 edges             72956
            3 textures          49096
              lightdata             0
              visdata               0
              entdata             743

0.351 seconds elapsed
Peak memory usage: 22728614 (21.7M)
