---- qbsp / ericw-tools v0.18.1 ----
Input file: GreyboxingSandbox.map
Output file: GreyboxingSandbox.bsp

---- LoadMapFile ----
*** WARNING 06: No info_player_deathmatch entities in level
          167 faces
           25 brushes
            3 entities
            3 unique texnames
           12 texinfo

Opened WAD: C:/QuakeDeve/wads/id1.wad
Opened WAD: C:/Users/mepow/Downloads/quake-leveldesign-starterkit-master (2)/quake-leveldesign-starterkit-master/wads/prototype_1_2.wad
Opened WAD: C:/QuakeDeve/wads/prototype_1_2.wad
Processing hull 0...
---- Brush_LoadEntity ----
           25 brushes
          138 planes
---- CSGFaces ----
          167 brushfaces
          249 csgfaces
          230 mergedfaces
---- SolidBSP ----
          473 split nodes
          157 solid leafs
          317 empty leafs
            0 water leafs
            0 detail leafs
            0 detail illusionary leafs
            0 detail fence leafs
            0 illusionary visblocker leafs
         7330 leaffaces
         7124 nodefaces
---- Portalize ----
          317 vis leafs
          317 vis clusters
         1046 vis portals
---- FillOutside ----
*** WARNING 10: Reached occupant at (272 -1408 8), no filling performed.
Leak file written to GreyboxingSandbox.pts
---- MakeFaceEdges ----
---- GrowRegions ----
Processing hull 1...
Processing hull 2...
---- WriteBSPFile ----
Wrote GreyboxingSandbox.bsp
          374 planes             7480
         8948 vertexes         107376
          473 nodes             11352
           11 texinfo             440
         7124 faces            142480
          641 clipnodes          5128
          318 leafs              8904
         7330 marksurfaces      14660
        28485 surfedges        113940
        16591 edges             66364
            3 textures          49096
              lightdata             0
              visdata               0
              entdata             369

0.160 seconds elapsed
Peak memory usage: 19684468 (18.8M)
