---- qbsp / ericw-tools v0.18.1 ----
Input file: GreyboxingSandbox.map
Output file: GreyboxingSandbox.bsp

---- LoadMapFile ----
          302 faces
           45 brushes
           42 entities
            5 unique texnames
           49 texinfo

Opened WAD: C:/QuakeDeve/wads/id1.wad
Opened WAD: C:/Users/mepow/Downloads/quake-leveldesign-starterkit-master (2)/quake-leveldesign-starterkit-master/wads/prototype_1_2.wad
Opened WAD: C:/QuakeDeve/wads/prototype_1_2.wad
Processing hull 0...
---- Brush_LoadEntity ----
           38 brushes
          204 planes
---- CSGFaces ----
          257 brushfaces
          755 csgfaces
          606 mergedfaces
---- SolidBSP ----
         1048 split nodes
          370 solid leafs
          677 empty leafs
            2 water leafs
            0 detail leafs
            0 detail illusionary leafs
            0 detail fence leafs
            0 illusionary visblocker leafs
         8137 leaffaces
         7711 nodefaces
---- Portalize ----
          679 vis leafs
          679 vis clusters
         2097 vis portals
---- FillOutside ----
*** WARNING 10: Reached occupant at (-16312 -4200 676), no filling performed.
Leak file written to GreyboxingSandbox.pts
---- MakeFaceEdges ----
---- GrowRegions ----
Processing hull 1...
*** WARNING 10: Reached occupant at (-16312 -4200 676), no filling performed.
Processing hull 2...
*** WARNING 10: Reached occupant at (-16312 -4200 676), no filling performed.
---- WriteBSPFile ----
Wrote GreyboxingSandbox.bsp
          717 planes            14340
         9650 vertexes         115800
         1093 nodes             26232
           46 texinfo            1840
         7826 faces            156520
         2157 clipnodes         17256
          725 leafs             20300
         8252 marksurfaces      16504
        31281 surfedges        125124
        18343 edges             73372
            5 textures          76384
              lightdata             0
              visdata               0
              entdata            3444

0.250 seconds elapsed
Peak memory usage: 24033112 (22.9M)
