---- qbsp / ericw-tools v0.18.1 ----
Input file: GreyboxingSandbox.map
Output file: GreyboxingSandbox.bsp

---- LoadMapFile ----
          311 faces
           46 brushes
           45 entities
            6 unique texnames
           62 texinfo

Opened WAD: C:/QuakeDeve/wads/id1.wad
Opened WAD: C:/Users/mepow/Downloads/quake-leveldesign-starterkit-master (2)/quake-leveldesign-starterkit-master/wads/prototype_1_2.wad
Opened WAD: C:/QuakeDeve/wads/prototype_1_2.wad
Processing hull 0...
---- Brush_LoadEntity ----
           38 brushes
          204 planes
---- CSGFaces ----
          257 brushfaces
          755 csgfaces
          606 mergedfaces
---- SolidBSP ----
         1048 split nodes
          370 solid leafs
          677 empty leafs
            2 water leafs
            0 detail leafs
            0 detail illusionary leafs
            0 detail fence leafs
            0 illusionary visblocker leafs
         8137 leaffaces
         7711 nodefaces
---- Portalize ----
          679 vis leafs
          679 vis clusters
         2097 vis portals
---- FillOutside ----
*** WARNING 10: Reached occupant at (-16312 -4200 676), no filling performed.
Leak file written to GreyboxingSandbox.pts
---- MakeFaceEdges ----
---- GrowRegions ----
Processing hull 1...
*** WARNING 10: Reached occupant at (-16312 -4200 676), no filling performed.
Processing hull 2...
*** WARNING 10: Reached occupant at (-16312 -4200 676), no filling performed.
*** WARNING 16: Texture __TB_empty not found
---- WriteBSPFile ----
Wrote GreyboxingSandbox.bsp
          755 planes            15100
         9645 vertexes         115740
         1102 nodes             26448
           59 texinfo            2360
         7827 faces            156540
         2195 clipnodes         17560
          734 leafs             20552
         8253 marksurfaces      16506
        31277 surfedges        125108
        18331 edges             73324
            6 textures          76388
              lightdata             0
              visdata               0
              entdata            3716

0.865 seconds elapsed
Peak memory usage: 24039802 (22.9M)
