---- qbsp / ericw-tools v0.18.1 ----
Input file: GreyboxingSandbox.map
Output file: GreyboxingSandbox.bsp

---- LoadMapFile ----
          407 faces
           58 brushes
          204 entities
           22 unique texnames
          153 texinfo

Opened WAD: C:/QuakeDeve/wads/id1.wad
Opened WAD: C:/Users/mepow/Downloads/quake-leveldesign-starterkit-master (2)/quake-leveldesign-starterkit-master/wads/prototype_1_2.wad
Opened WAD: C:/QuakeDeve/wads/prototype_1_2.wad
Processing hull 0...
---- Brush_LoadEntity ----
           53 brushes
          285 planes
---- CSGFaces ----
          374 brushfaces
         1063 csgfaces
          819 mergedfaces
---- SolidBSP ----
         1425 split nodes
          550 solid leafs
          763 empty leafs
          113 water leafs
            0 detail leafs
            0 detail illusionary leafs
            0 detail fence leafs
            0 illusionary visblocker leafs
         8252 leaffaces
         7663 nodefaces
---- Portalize ----
          876 vis leafs
          876 vis clusters
         2639 vis portals
---- FillOutside ----
*** WARNING 10: Reached occupant at (-28 -820 92), no filling performed.
Leak file written to GreyboxingSandbox.pts
---- MakeFaceEdges ----
---- GrowRegions ----
Processing hull 1...
*** WARNING 10: Reached occupant at (-1064 1161 1320), no filling performed.
Processing hull 2...
*** WARNING 10: Reached occupant at (-1064 1161 1320), no filling performed.
---- WriteBSPFile ----
Wrote GreyboxingSandbox.bsp
          957 planes            19140
         9443 vertexes         113316
         1458 nodes             34992
          141 texinfo            5640
         7709 faces            154180
         3041 clipnodes         24328
          910 leafs             25480
         8298 marksurfaces      16596
        30785 surfedges        123140
        18740 edges             74960
           22 textures         150572
              lightdata             0
              visdata               0
              entdata           12329

0.551 seconds elapsed
Peak memory usage: 26397760 (25.2M)
