---- qbsp / ericw-tools v0.18.1 ----
Input file: GreyboxingSandbox.map
Output file: GreyboxingSandbox.bsp

---- LoadMapFile ----
          285 faces
           42 brushes
           82 entities
           20 unique texnames
           95 texinfo

Opened WAD: C:/QuakeDeve/wads/id1.wad
Opened WAD: C:/Users/mepow/Downloads/quake-leveldesign-starterkit-master (2)/quake-leveldesign-starterkit-master/wads/prototype_1_2.wad
Opened WAD: C:/QuakeDeve/wads/prototype_1_2.wad
Processing hull 0...
---- Brush_LoadEntity ----
           39 brushes
          208 planes
---- CSGFaces ----
          263 brushfaces
          669 csgfaces
          566 mergedfaces
---- SolidBSP ----
         1025 split nodes
          345 solid leafs
          681 empty leafs
            0 water leafs
            0 detail leafs
            0 detail illusionary leafs
            0 detail fence leafs
            0 illusionary visblocker leafs
         8122 leaffaces
         7564 nodefaces
---- Portalize ----
          681 vis leafs
          681 vis clusters
         2156 vis portals
---- FillOutside ----
*** WARNING 10: Reached occupant at (-2116 -232 456), no filling performed.
Leak file written to GreyboxingSandbox.pts
---- MakeFaceEdges ----
---- GrowRegions ----
Processing hull 1...
*** WARNING 10: Reached occupant at (-2116 -232 456), no filling performed.
Processing hull 2...
*** WARNING 10: Reached occupant at (-2116 -232 456), no filling performed.
---- WriteBSPFile ----
Wrote GreyboxingSandbox.bsp
          664 planes            13280
         9416 vertexes         112992
         1047 nodes             25128
           93 texinfo            3720
         7625 faces            152500
         2114 clipnodes         16912
          704 leafs             19712
         8183 marksurfaces      16366
        30476 surfedges        121904
        17885 edges             71540
           20 textures         173604
              lightdata             0
              visdata               0
              entdata            5373

0.218 seconds elapsed
Peak memory usage: 23873070 (22.8M)
