---- qbsp / ericw-tools v0.18.1 ----
Input file: GreyboxingSandbox.map
Output file: GreyboxingSandbox.bsp

---- LoadMapFile ----
          251 faces
           37 brushes
           54 entities
            6 unique texnames
           49 texinfo

Opened WAD: C:/QuakeDeve/wads/id1.wad
Opened WAD: C:/Users/mepow/Downloads/quake-leveldesign-starterkit-master (2)/quake-leveldesign-starterkit-master/wads/prototype_1_2.wad
Opened WAD: C:/QuakeDeve/wads/prototype_1_2.wad
Processing hull 0...
---- Brush_LoadEntity ----
           35 brushes
          191 planes
---- CSGFaces ----
          239 brushfaces
          641 csgfaces
          521 mergedfaces
---- SolidBSP ----
          904 split nodes
          320 solid leafs
          585 empty leafs
            0 water leafs
            0 detail leafs
            0 detail illusionary leafs
            0 detail fence leafs
            0 illusionary visblocker leafs
         7667 leaffaces
         7209 nodefaces
---- Portalize ----
          585 vis leafs
          585 vis clusters
         1778 vis portals
---- FillOutside ----
*** WARNING 10: Reached occupant at (-3284 -1176 200), no filling performed.
Leak file written to GreyboxingSandbox.pts
---- MakeFaceEdges ----
---- GrowRegions ----
Processing hull 1...
Processing hull 2...
---- WriteBSPFile ----
Wrote GreyboxingSandbox.bsp
          558 planes            11160
         8830 vertexes         105960
          916 nodes             21984
           46 texinfo            1840
         7253 faces            145060
         1071 clipnodes          8568
          598 leafs             16744
         7711 marksurfaces      15422
        28989 surfedges        115956
        16867 edges             67468
            6 textures          65548
              lightdata             0
              visdata               0
              entdata            3620

0.214 seconds elapsed
Peak memory usage: 21375070 (20.4M)
