---- qbsp / ericw-tools v0.18.1 ----
Input file: GreyboxingSandbox.map
Output file: GreyboxingSandbox.bsp

---- LoadMapFile ----
          302 faces
           45 brushes
           40 entities
            5 unique texnames
           49 texinfo

Opened WAD: C:/QuakeDeve/wads/id1.wad
Opened WAD: C:/Users/mepow/Downloads/quake-leveldesign-starterkit-master (2)/quake-leveldesign-starterkit-master/wads/prototype_1_2.wad
Opened WAD: C:/QuakeDeve/wads/prototype_1_2.wad
Processing hull 0...
---- Brush_LoadEntity ----
           38 brushes
          203 planes
---- CSGFaces ----
          257 brushfaces
          753 csgfaces
          594 mergedfaces
---- SolidBSP ----
         1062 split nodes
          376 solid leafs
          685 empty leafs
            2 water leafs
            0 detail leafs
            0 detail illusionary leafs
            0 detail fence leafs
            0 illusionary visblocker leafs
         8212 leaffaces
         7781 nodefaces
---- Portalize ----
          687 vis leafs
          687 vis clusters
         2123 vis portals
---- FillOutside ----
*** WARNING 10: Reached occupant at (-16312 -4200 676), no filling performed.
Leak file written to GreyboxingSandbox.pts
---- MakeFaceEdges ----
---- GrowRegions ----
Processing hull 1...
*** WARNING 10: Reached occupant at (-16312 -4200 676), no filling performed.
Processing hull 2...
*** WARNING 10: Reached occupant at (-16312 -4200 676), no filling performed.
---- WriteBSPFile ----
Wrote GreyboxingSandbox.bsp
          716 planes            14320
         9713 vertexes         116556
         1107 nodes             26568
           46 texinfo            1840
         7838 faces            156760
         2114 clipnodes         16912
          733 leafs             20524
         8269 marksurfaces      16538
        31324 surfedges        125296
        18435 edges             73740
            5 textures          76384
              lightdata             0
              visdata               0
              entdata            2969

0.226 seconds elapsed
Peak memory usage: 23894218 (22.8M)
