---- qbsp / ericw-tools v0.18.1 ----
Input file: GreyboxingSandbox.map
Output file: GreyboxingSandbox.bsp

---- LoadMapFile ----
*** WARNING 06: No info_player_deathmatch entities in level
           74 faces
           11 brushes
            2 entities
            3 unique texnames
           10 texinfo

Opened WAD: C:/QuakeDeve/wads/id1.wad
Opened WAD: C:/Users/mepow/Downloads/quake-leveldesign-starterkit-master (2)/quake-leveldesign-starterkit-master/wads/prototype_1_2.wad
Opened WAD: C:/QuakeDeve/wads/prototype_1_2.wad
Processing hull 0...
---- Brush_LoadEntity ----
           11 brushes
           55 planes
---- CSGFaces ----
           74 brushfaces
           99 csgfaces
           92 mergedfaces
---- SolidBSP ----
          147 split nodes
           45 solid leafs
          103 empty leafs
            0 water leafs
            0 detail leafs
            0 detail illusionary leafs
            0 detail fence leafs
            0 illusionary visblocker leafs
         6464 leaffaces
         6297 nodefaces
---- Portalize ----
          103 vis leafs
          103 vis clusters
          275 vis portals
---- FillOutside ----
*** WARNING 10: Reached occupant at (1829 2523 1504), no filling performed.
Leak file written to GreyboxingSandbox.pts
---- MakeFaceEdges ----
---- GrowRegions ----
Processing hull 1...
*** WARNING 19: No entities in empty space -- no filling performed (hull 1)
Processing hull 2...
*** WARNING 19: No entities in empty space -- no filling performed (hull 2)
---- WriteBSPFile ----
Wrote GreyboxingSandbox.bsp
          141 planes             2820
         8093 vertexes          97116
          147 nodes              3528
           10 texinfo             400
         6297 faces            125940
          405 clipnodes          3240
          104 leafs              2912
         6464 marksurfaces      12928
        25177 surfedges        100708
        14667 edges             58668
            3 textures          49096
              lightdata             0
              visdata               0
              entdata             300

0.137 seconds elapsed
Peak memory usage: 15507924 (14.8M)
