---- qbsp / ericw-tools v0.18.1 ----
Input file: GreyboxingSandbox.map
Output file: GreyboxingSandbox.bsp

---- LoadMapFile ----
*** WARNING 06: No info_player_deathmatch entities in level
          122 faces
           18 brushes
            2 entities
            4 unique texnames
           16 texinfo

Opened WAD: C:/QuakeDeve/wads/id1.wad
Opened WAD: C:/Users/mepow/Downloads/quake-leveldesign-starterkit-master (2)/quake-leveldesign-starterkit-master/wads/prototype_1_2.wad
Opened WAD: C:/QuakeDeve/wads/prototype_1_2.wad
Processing hull 0...
---- Brush_LoadEntity ----
           18 brushes
           94 planes
---- CSGFaces ----
          122 brushfaces
          183 csgfaces
          160 mergedfaces
---- SolidBSP ----
          289 split nodes
           95 solid leafs
          195 empty leafs
            0 water leafs
            0 detail leafs
            0 detail illusionary leafs
            0 detail fence leafs
            0 illusionary visblocker leafs
         6701 leaffaces
         6527 nodefaces
---- Portalize ----
          195 vis leafs
          195 vis clusters
          567 vis portals
---- FillOutside ----
          120 outleafs
---- MergeAll ----
          111 mergefaces
---- SolidBSP ----
          146 split nodes
           72 solid leafs
           75 empty leafs
            0 water leafs
            0 detail leafs
            0 detail illusionary leafs
            0 detail fence leafs
            0 illusionary visblocker leafs
         3282 leaffaces
         3115 nodefaces
---- Portalize ----
           75 vis leafs
           75 vis clusters
          268 vis portals
---- Tjunc ----
         1321 world edges
         8549 edge points
         1904 edges added by tjunctions
            0 faces added by tjunctions
---- MakeFaceEdges ----
---- GrowRegions ----
Processing hull 1...
Processing hull 2...
*** WARNING 16: Texture __TB_empty not found
---- WriteBSPFile ----
Wrote GreyboxingSandbox.bsp
          207 planes             4140
         4063 vertexes          48756
          146 nodes              3504
           13 texinfo             520
         3115 faces             62300
          334 clipnodes          2672
           76 leafs              2128
         3282 marksurfaces       6564
        14348 surfedges         57392
         7175 edges             28700
            4 textures          49100
              lightdata             0
              visdata               0
              entdata             298

0.143 seconds elapsed
Peak memory usage: 11393788 (10.9M)
