---- qbsp / ericw-tools v0.18.1 ----
Input file: GreyboxingSandbox.map
Output file: GreyboxingSandbox.bsp

---- LoadMapFile ----
          245 faces
           36 brushes
           27 entities
            4 unique texnames
           43 texinfo

Opened WAD: C:/QuakeDeve/wads/id1.wad
Opened WAD: C:/Users/mepow/Downloads/quake-leveldesign-starterkit-master (2)/quake-leveldesign-starterkit-master/wads/prototype_1_2.wad
Opened WAD: C:/QuakeDeve/wads/prototype_1_2.wad
Processing hull 0...
---- Brush_LoadEntity ----
           36 brushes
          194 planes
---- CSGFaces ----
          245 brushfaces
          668 csgfaces
          537 mergedfaces
---- SolidBSP ----
          962 split nodes
          343 solid leafs
          620 empty leafs
            0 water leafs
            0 detail leafs
            0 detail illusionary leafs
            0 detail fence leafs
            0 illusionary visblocker leafs
         7795 leaffaces
         7330 nodefaces
---- Portalize ----
          620 vis leafs
          620 vis clusters
         1872 vis portals
---- FillOutside ----
*** WARNING 10: Reached occupant at (-16312 -4200 676), no filling performed.
Leak file written to GreyboxingSandbox.pts
---- MakeFaceEdges ----
---- GrowRegions ----
Processing hull 1...
*** WARNING 10: Reached occupant at (-16312 -4200 676), no filling performed.
Processing hull 2...
*** WARNING 10: Reached occupant at (-16312 -4200 676), no filling performed.
---- WriteBSPFile ----
Wrote GreyboxingSandbox.bsp
          600 planes            12000
         8940 vertexes         107280
          962 nodes             23088
           40 texinfo            1600
         7330 faces            146600
         1998 clipnodes         15984
          621 leafs             17388
         7795 marksurfaces      15590
        29297 surfedges        117188
        17103 edges             68412
            4 textures          70900
              lightdata             0
              visdata               0
              entdata            2096

0.188 seconds elapsed
Peak memory usage: 22854986 (21.8M)
