---- qbsp / ericw-tools v0.18.1 ----
Input file: GreyboxingSandbox.map
Output file: GreyboxingSandbox.bsp

---- LoadMapFile ----
*** WARNING 06: No info_player_deathmatch entities in level
           74 faces
           11 brushes
            2 entities
            3 unique texnames
           10 texinfo

Opened WAD: C:/QuakeDeve/wads/id1.wad
Opened WAD: C:/Users/mepow/Downloads/quake-leveldesign-starterkit-master (2)/quake-leveldesign-starterkit-master/wads/prototype_1_2.wad
Opened WAD: C:/QuakeDeve/wads/prototype_1_2.wad
Processing hull 0...
---- Brush_LoadEntity ----
           11 brushes
           58 planes
---- CSGFaces ----
           74 brushfaces
           91 csgfaces
           88 mergedfaces
---- SolidBSP ----
          149 split nodes
           43 solid leafs
          107 empty leafs
            0 water leafs
            0 detail leafs
            0 detail illusionary leafs
            0 detail fence leafs
            0 illusionary visblocker leafs
         6514 leaffaces
         6360 nodefaces
---- Portalize ----
          107 vis leafs
          107 vis clusters
          295 vis portals
---- FillOutside ----
*** WARNING 10: Reached occupant at (1829 2523 1504), no filling performed.
Leak file written to GreyboxingSandbox.pts
---- MakeFaceEdges ----
---- GrowRegions ----
Processing hull 1...
*** WARNING 19: No entities in empty space -- no filling performed (hull 1)
Processing hull 2...
*** WARNING 19: No entities in empty space -- no filling performed (hull 2)
---- WriteBSPFile ----
Wrote GreyboxingSandbox.bsp
          147 planes             2940
         7483 vertexes          89796
          149 nodes              3576
           10 texinfo             400
         6360 faces            127200
          350 clipnodes          2800
          108 leafs              3024
         6514 marksurfaces      13028
        25433 surfedges        101732
        14120 edges             56480
            3 textures          49096
              lightdata             0
              visdata               0
              entdata             300

0.126 seconds elapsed
Peak memory usage: 15508788 (14.8M)
