---- qbsp / ericw-tools v0.18.1 ----
Input file: GreyboxingSandbox.map
Output file: GreyboxingSandbox.bsp

---- LoadMapFile ----
          299 faces
           44 brushes
           40 entities
            5 unique texnames
           59 texinfo

Opened WAD: C:/QuakeDeve/wads/id1.wad
Opened WAD: C:/Users/mepow/Downloads/quake-leveldesign-starterkit-master (2)/quake-leveldesign-starterkit-master/wads/prototype_1_2.wad
Opened WAD: C:/QuakeDeve/wads/prototype_1_2.wad
Processing hull 0...
---- Brush_LoadEntity ----
           38 brushes
          203 planes
---- CSGFaces ----
          257 brushfaces
          708 csgfaces
          569 mergedfaces
---- SolidBSP ----
         1011 split nodes
          354 solid leafs
          656 empty leafs
            2 water leafs
            0 detail leafs
            0 detail illusionary leafs
            0 detail fence leafs
            0 illusionary visblocker leafs
         7622 leaffaces
         7196 nodefaces
---- Portalize ----
          658 vis leafs
          658 vis clusters
         2039 vis portals
---- FillOutside ----
*** WARNING 10: Reached occupant at (-16312 -4200 676), no filling performed.
Leak file written to GreyboxingSandbox.pts
---- MakeFaceEdges ----
---- GrowRegions ----
Processing hull 1...
*** WARNING 10: Reached occupant at (-16312 -4200 676), no filling performed.
Processing hull 2...
*** WARNING 10: Reached occupant at (-16312 -4200 676), no filling performed.
---- WriteBSPFile ----
Wrote GreyboxingSandbox.bsp
          725 planes            14500
         8936 vertexes         107232
         1053 nodes             25272
           56 texinfo            2240
         7300 faces            146000
         2163 clipnodes         17304
          701 leafs             19628
         7726 marksurfaces      15452
        29169 surfedges        116676
        17052 edges             68208
            5 textures          76384
              lightdata             0
              visdata               0
              entdata            3336

0.288 seconds elapsed
Peak memory usage: 22866176 (21.8M)
